Version 4
SHEET 1 1500 812
WIRE 16 -128 -16 -128
WIRE 1008 -128 96 -128
WIRE -16 -32 -16 -128
WIRE 16 -32 -16 -32
WIRE 128 -32 96 -32
WIRE 1040 -32 1040 -128
WIRE 1040 -32 128 -32
WIRE 1248 -32 1232 -32
WIRE 1344 -32 1328 -32
WIRE -272 0 -400 0
WIRE 1136 64 1104 64
WIRE 1232 64 1232 -32
WIRE 1232 64 1216 64
WIRE 1248 64 1232 64
WIRE -336 80 -336 64
WIRE 1104 80 1104 64
WIRE 1344 80 1344 -32
WIRE 1344 80 1312 80
WIRE -400 96 -400 0
WIRE -368 96 -400 96
WIRE 80 96 80 80
WIRE 512 96 512 80
WIRE 944 96 944 80
WIRE 1248 96 1216 96
WIRE 1344 96 1344 80
WIRE -272 112 -272 0
WIRE -272 112 -304 112
WIRE -256 112 -272 112
WIRE -160 112 -176 112
WIRE -144 112 -160 112
WIRE -16 112 -16 -32
WIRE -16 112 -64 112
WIRE 48 112 -16 112
WIRE 480 112 416 112
WIRE 912 112 848 112
WIRE -496 128 -544 128
WIRE -400 128 -432 128
WIRE -368 128 -400 128
WIRE 128 128 128 -32
WIRE 128 128 112 128
WIRE 560 128 544 128
WIRE 1008 128 1008 -128
WIRE 1008 128 976 128
WIRE 48 144 16 144
WIRE 480 144 448 144
WIRE 912 144 880 144
WIRE -336 160 -336 144
WIRE -160 160 -160 112
WIRE -112 160 -160 160
WIRE 448 160 448 144
WIRE 880 160 880 144
WIRE 1040 160 1040 -32
WIRE 1136 160 1040 160
WIRE 1216 160 1216 96
WIRE -544 176 -544 128
WIRE 80 176 80 160
WIRE 512 176 512 160
WIRE 944 176 944 160
WIRE -400 192 -400 128
WIRE 320 224 256 224
WIRE 752 224 688 224
WIRE 320 240 320 224
WIRE 752 240 752 224
WIRE 1216 256 1216 160
WIRE 1344 272 1344 240
WIRE 1376 272 1344 272
WIRE -544 288 -544 256
WIRE -400 288 -400 272
WIRE 128 288 128 128
WIRE 160 288 128 288
WIRE 256 288 256 224
WIRE 256 288 240 288
WIRE 272 288 256 288
WIRE 416 288 416 112
WIRE 416 288 352 288
WIRE 464 288 416 288
WIRE 560 288 560 128
WIRE 560 288 528 288
WIRE 592 288 560 288
WIRE 688 288 688 224
WIRE 688 288 672 288
WIRE 704 288 688 288
WIRE 848 288 848 112
WIRE 848 288 784 288
WIRE 896 288 848 288
WIRE 1008 288 1008 128
WIRE 1008 288 960 288
WIRE 16 352 16 144
WIRE 32 352 16 352
WIRE 560 352 560 288
WIRE 560 352 112 352
WIRE 1136 384 1136 256
WIRE 1152 384 1136 384
WIRE 16 400 16 352
WIRE 880 400 800 400
WIRE 880 416 880 400
WIRE 1008 416 1008 288
WIRE 1136 416 1136 384
WIRE -432 432 -464 432
WIRE -336 432 -432 432
WIRE 800 432 800 400
WIRE -432 448 -432 432
WIRE -336 448 -336 432
WIRE 16 496 16 480
WIRE 896 512 896 496
WIRE 896 512 672 512
WIRE 992 512 992 496
WIRE 992 512 896 512
WIRE 1024 512 1024 496
WIRE 1152 512 1152 496
WIRE 1152 512 1024 512
WIRE -432 544 -432 512
WIRE -432 544 -496 544
WIRE -336 544 -336 528
WIRE -336 544 -432 544
WIRE -496 560 -496 544
WIRE -336 560 -336 544
WIRE 816 560 800 560
WIRE 928 560 896 560
WIRE -432 576 -432 544
WIRE 16 592 16 576
WIRE 64 592 64 544
WIRE 64 592 16 592
WIRE 16 640 16 592
WIRE -432 672 -432 640
WIRE -432 672 -464 672
WIRE -336 672 -336 640
WIRE -336 672 -432 672
WIRE 672 672 672 512
WIRE 704 672 672 672
WIRE 800 672 800 560
WIRE 800 672 784 672
WIRE 832 672 800 672
WIRE 928 688 928 560
WIRE 928 688 896 688
WIRE 1120 688 1120 496
WIRE 1120 688 928 688
WIRE 832 704 816 704
WIRE 816 736 816 704
FLAG 16 640 0
FLAG 1296 384 LOW
IOPIN 1296 384 Out
FLAG 448 160 0
FLAG 880 160 0
FLAG 1184 -128 HIGH
IOPIN 1184 -128 Out
FLAG 80 176 V-
FLAG 512 176 V-
FLAG 944 176 V-
FLAG 80 80 V+
FLAG 512 80 V+
FLAG 944 80 V+
FLAG -496 560 0
FLAG -464 432 V+
FLAG -464 672 V-
FLAG 864 656 V+
FLAG 864 720 V-
FLAG -544 288 0
FLAG -400 288 0
FLAG -336 64 V+
FLAG -336 160 V-
FLAG 800 432 0
FLAG 1104 80 0
FLAG 1376 272 SUM
IOPIN 1376 272 Out
FLAG 1280 48 V+
FLAG 1280 112 V-
FLAG -544 128 IN
FLAG 816 736 0
SYMBOL res -160 96 R90
WINDOW 0 0 56 VBottom 2
WINDOW 3 32 56 VTop 2
SYMATTR InstName R1
SYMATTR Value 1K
SYMBOL res 128 336 R90
WINDOW 0 0 56 VBottom 2
WINDOW 3 32 56 VTop 2
SYMATTR InstName R2
SYMATTR Value 10K
SYMBOL res 112 -48 R90
WINDOW 0 0 56 VBottom 2
WINDOW 3 32 56 VTop 2
SYMATTR InstName R3
SYMATTR Value 10K
SYMBOL res 112 -144 R90
WINDOW 0 0 56 VBottom 2
WINDOW 3 32 56 VTop 2
SYMATTR InstName R4
SYMATTR Value 10K
SYMBOL cap 528 272 R90
WINDOW 0 0 32 VBottom 2
WINDOW 3 32 32 VTop 2
SYMATTR InstName C1
SYMATTR Value 10nF
SYMBOL cap 960 272 R90
WINDOW 0 0 32 VBottom 2
WINDOW 3 32 32 VTop 2
SYMATTR InstName C2
SYMATTR Value 10nF
SYMBOL voltage -336 432 R0
WINDOW 123 0 0 Left 2
WINDOW 39 0 0 Left 2
SYMATTR InstName V1
SYMATTR Value 4.5V
SYMBOL cap -448 448 R0
SYMATTR InstName C3
SYMATTR Value 10µ
SYMBOL cap -448 576 R0
SYMATTR InstName C4
SYMATTR Value 10µ
SYMBOL potentiometer -48 96 R90
WINDOW 0 59 18 VRight 2
WINDOW 3 36 88 Invisible 2
SYMATTR InstName U1
SYMATTR Value Rtot=25K wiper=.64
SYMBOL potentiometer 0 480 R0
WINDOW 0 58 23 VRight 2
WINDOW 3 36 88 Invisible 2
SYMATTR InstName U2
SYMATTR Value Rtot=25K wiper=0.7
SYMBOL res 688 272 R90
WINDOW 0 0 56 VBottom 2
WINDOW 3 32 56 VTop 2
SYMATTR InstName R5
SYMATTR Value 2.2K
SYMBOL res 256 272 R90
WINDOW 0 0 56 VBottom 2
WINDOW 3 32 56 VTop 2
SYMATTR InstName R6
SYMATTR Value 2.2K
SYMBOL potentiometer_standard 256 304 R270
WINDOW 0 109 16 Left 2
WINDOW 3 43 99 Left 2
WINDOW 39 109 111 Invisible 2
WINDOW 38 112 46 Invisible 2
SYMATTR InstName U3
SYMATTR Value Rtot=100K wiper={R}
SYMATTR SpiceLine Rtap=10k tap=0.5
SYMATTR SpiceModel pot_nlog
SYMBOL potentiometer_standard 688 304 R270
WINDOW 0 108 12 Left 2
WINDOW 3 38 102 Left 2
WINDOW 39 109 114 Invisible 2
WINDOW 38 109 44 Invisible 2
SYMATTR InstName U4
SYMATTR Value Rtot=100K wiper={R}
SYMATTR SpiceLine Rtap=10k tap=0.5
SYMATTR SpiceModel pot_nlog
SYMBOL Opamps\\UniversalOpamp2 80 128 R0
WINDOW 0 18 -63 Left 2
SYMATTR InstName U5
SYMBOL Opamps\\UniversalOpamp2 512 128 R0
WINDOW 0 18 -63 Left 2
SYMATTR InstName U6
SYMBOL Opamps\\UniversalOpamp2 944 128 R0
WINDOW 0 18 -63 Left 2
SYMATTR InstName U7
SYMBOL Opamps\\UniversalOpamp2 864 688 R0
WINDOW 0 18 -63 Left 2
SYMATTR InstName U8
SYMBOL res 912 544 R90
WINDOW 0 0 56 VBottom 2
WINDOW 3 32 56 VTop 2
SYMATTR InstName R7
SYMATTR Value 10K
SYMBOL res 800 656 R90
WINDOW 0 0 56 VBottom 2
WINDOW 3 32 56 VTop 2
SYMATTR InstName R8
SYMATTR Value 10K
SYMBOL spdt 1136 464 R90
WINDOW 3 -32 36 Invisible 2
SYMATTR Value SET={sw}
SYMATTR InstName SW1.3
SYMBOL spdt 1008 464 R90
WINDOW 3 -32 36 Invisible 2
SYMATTR Value SET={sw}
SYMATTR InstName SW1.2
SYMBOL res 1248 368 R90
WINDOW 0 0 56 VBottom 2
WINDOW 3 32 56 VTop 2
SYMATTR InstName R9
SYMATTR Value 500
SYMBOL polcap 1232 400 R270
WINDOW 0 32 32 VTop 2
WINDOW 3 0 32 VBottom 2
SYMATTR InstName C5
SYMATTR Value 10µF
SYMBOL res 1136 -144 R90
WINDOW 0 0 56 VBottom 2
WINDOW 3 32 56 VTop 2
SYMATTR InstName R10
SYMATTR Value 500
SYMBOL polcap 1120 -112 R270
WINDOW 0 32 32 VTop 2
WINDOW 3 0 32 VBottom 2
SYMATTR InstName C6
SYMATTR Value 10µF
SYMBOL Opamps\\UniversalOpamp2 -336 112 R0
SYMATTR InstName U11
SYMBOL res -416 176 R0
SYMATTR InstName R11
SYMATTR Value 1Meg
SYMBOL cap -432 112 R90
WINDOW 0 0 32 VBottom 2
WINDOW 3 32 32 VTop 2
SYMATTR InstName C7
SYMATTR Value 0.1µF
SYMBOL voltage -544 160 R0
WINDOW 39 -112 95 Left 2
WINDOW 3 24 96 Invisible 2
WINDOW 0 -51 -9 Left 2
SYMATTR Value SINE(0 0.1V 10000)
SYMATTR InstName V2
SYMATTR Value2 AC 1
SYMBOL spdt 880 464 R90
WINDOW 3 -32 36 Invisible 2
SYMATTR Value SET={sw}
SYMATTR InstName SW1.1
SYMBOL Opamps\\UniversalOpamp2 1280 80 R0
SYMATTR InstName U13
SYMBOL res 1232 48 R90
WINDOW 0 0 56 VBottom 2
WINDOW 3 32 56 VTop 2
SYMATTR InstName R12
SYMATTR Value 10K
SYMBOL res 1344 -48 R90
WINDOW 0 0 56 VBottom 2
WINDOW 3 32 56 VTop 2
SYMATTR InstName R13
SYMATTR Value 10K
SYMBOL res 1232 144 R90
WINDOW 0 0 56 VBottom 2
WINDOW 3 32 56 VTop 2
SYMATTR InstName R14
SYMATTR Value 47K
SYMBOL res 1232 240 R90
WINDOW 0 0 56 VBottom 2
WINDOW 3 32 56 VTop 2
SYMATTR InstName R15
SYMATTR Value 47K
SYMBOL res 1328 80 R0
SYMATTR InstName R16
SYMATTR Value 500
SYMBOL polcap 1328 176 R0
SYMATTR InstName C8
SYMATTR Value 10µF
SYMBOL voltage -336 544 R0
WINDOW 123 0 0 Left 2
WINDOW 39 0 0 Left 2
SYMATTR InstName V3
SYMATTR Value 4.5V
SYMBOL res 0 384 R0
SYMATTR InstName R17
SYMATTR Value 500
TEXT 408 552 Left 2 !;tran 3
TEXT 408 608 Left 2 !.ac oct 20 10 20000
TEXT 112 552 Left 2 !.inc potentiometer.sub
TEXT 112 608 Left 2 !.step lin param R 0 1 0.1
TEXT -160 72 Left 2 ;Gain 25K
TEXT -64 536 Left 2 ;Q 25K
TEXT 112 664 Left 2 !.param sw 1
TEXT 920 408 Left 2 ;Phase
TEXT 512 400 Left 2 ;Freq
TEXT 120 504 Left 2 !.inc potentiometer_standard.lib
LINE Normal 384 384 320 304 2
LINE Normal 832 384 384 384 2
LINE Normal 752 304 832 384 2
LINE Normal 752 304 752 304 2
LINE Normal 752 304 752 304 2
LINE Normal 1136 464 880 464 2
LINE Normal 1136 464 1136 464 2
LINE Normal 1136 464 1136 464 2
